tests/data/power_flow/automatic-tap-regulator/link-before-transformer-fast-any/input.json
{
  "version": "1.0",
  "type": "input",
  "is_batch": false,
  "attributes": {},
  "data": {
    "node": [
      {"id": 1, "u_rated": 10000},
      {"id": 2, "u_rated": 10000},
      {"id": 3, "u_rated": 400}
    ],
    "link": [
      {"id": 4, "from_node": 1, "to_node": 2, "from_status": 1, "to_status": 1}
    ],
    "transformer": [
      {"id": 5, "from_node": 2, "to_node": 3, "from_status": 1, "to_status": 1, "u1": 10750, "u2": 420, "sn": 400000, "uk": 0.0436, "pk": 3705, "i0": 0.01, "p0": 515, "winding_from": 2, "winding_to": 1, "clock": 11, "tap_side": 0, "tap_pos": 3, "tap_min": 1, "tap_max": 5, "tap_nom": 3, "tap_size": 250}
    ],
    "transformer_tap_regulator": [
      {"id": 6, "regulated_object": 5, "status": 1, "control_side": 1, "u_set": 400, "u_band": 32, "line_drop_compensation_r": 0, "line_drop_compensation_x": 0}
    ],
    "source": [
      {"id": 7, "node": 1, "status": 1, "u_ref": 1.05}
    ]
  }
}